REMARK  8 active torsions:
REMARK  status: ('A' for Active; 'I' for Inactive)
REMARK       I    between atoms: C02_2384  and  N03_2385 
REMARK    1  A    between atoms: C02_2384  and  C34_2407 
REMARK    2  A    between atoms: N03_2385  and  C04_2386 
REMARK    3  A    between atoms: N03_2385  and  C16_2395 
REMARK    4  A    between atoms: C07_2389  and  C08_2390 
REMARK    5  A    between atoms: C17_2377  and  C16_2395 
REMARK    6  A    between atoms: C16_2395  and  C23_2398 
REMARK       I    between atoms: C23_2398  and  N24_2399 
REMARK    7  A    between atoms: N24_2399  and  C25_2400 
REMARK    8  A    between atoms: C25_2400  and  C27_2401 
ROOT
HETATM    1 CL35 5ZF A 503       5.868  -4.622  20.313  1.00 51.94    -0.103 Cl
HETATM    2  C34 5ZF A 503       7.212  -3.504  20.537  1.00 37.86     0.183 C 
ENDROOT
BRANCH   2   3
HETATM    3  C02 5ZF A 503       6.534  -2.170  20.758  1.00 36.80     0.255 C 
HETATM    4  O01 5ZF A 503       5.434  -2.045  20.159  1.00 35.01    -0.271 OA
HETATM    5  N03 5ZF A 503       7.077  -1.087  21.435  1.00 33.46    -0.288 N 
BRANCH   5   6
HETATM    6  C04 5ZF A 503       8.253  -1.328  22.128  1.00 37.26     0.063 A 
HETATM    7  C15 5ZF A 503       9.548  -1.350  21.614  1.00 36.91     0.017 A 
HETATM    8  C14 5ZF A 503      10.663  -1.673  22.410  1.00 37.08     0.002 A 
HETATM    9  C07 5ZF A 503      10.579  -2.032  23.783  1.00 38.70     0.000 A 
HETATM   10  C06 5ZF A 503       9.259  -2.051  24.264  1.00 40.11     0.002 A 
HETATM   11  C05 5ZF A 503       8.175  -1.744  23.471  1.00 37.21     0.017 A 
BRANCH   9  12
HETATM   12  C08 5ZF A 503      11.753  -2.378  24.658  1.00 39.26     0.000 A 
HETATM   13  C13 5ZF A 503      13.093  -2.193  24.215  1.00 42.70     0.000 A 
HETATM   14  C12 5ZF A 503      14.204  -2.489  24.982  1.00 43.34     0.000 A 
HETATM   15  C11 5ZF A 503      14.067  -3.003  26.266  1.00 46.16     0.000 A 
HETATM   16  C10 5ZF A 503      12.757  -3.195  26.759  1.00 43.77     0.000 A 
HETATM   17  C09 5ZF A 503      11.634  -2.890  25.947  1.00 40.45     0.000 A 
ENDBRANCH   9  12
ENDBRANCH   5   6
BRANCH   5  18
HETATM   18  C16 5ZF A 503       6.443   0.185  21.508  1.00 36.11     0.193 C 
BRANCH  18  19
HETATM   19  C17 5ZF A 503       5.845   0.679  20.134  1.00 32.98     0.027 A 
HETATM   20  C18 5ZF A 503       6.485   0.404  18.923  1.00 34.32     0.097 A 
HETATM   21  N19 5ZF A 503       6.076   0.813  17.724  1.00 36.33    -0.243 NA
HETATM   22  C20 5ZF A 503       4.949   1.603  17.658  1.00 37.74     0.099 A 
HETATM   23  C21 5ZF A 503       4.242   1.942  18.799  1.00 34.65     0.021 A 
HETATM   24  C22 5ZF A 503       4.740   1.490  20.035  1.00 33.16     0.001 A 
ENDBRANCH  18  19
BRANCH  18  25
HETATM   25  C23 5ZF A 503       7.638   1.215  21.722  1.00 38.17     0.277 C 
HETATM   26  N24 5ZF A 503       7.621   2.254  22.671  1.00 35.59    -0.234 NA
HETATM   27  O33 5ZF A 503       8.620   1.127  20.927  1.00 37.50    -0.268 OA
BRANCH  26  28
HETATM   28  C25 5ZF A 503       8.748   3.222  22.804  1.00 33.11     0.129 C 
HETATM   29  C26 5ZF A 503       8.141   4.481  23.453  1.00 36.41     0.031 C 
BRANCH  28  30
HETATM   30  C27 5ZF A 503       9.883   2.640  23.657  1.00 33.29    -0.000 A 
HETATM   31  C28 5ZF A 503      11.202   2.979  23.374  1.00 36.01    -0.002 A 
HETATM   32  C29 5ZF A 503      12.315   2.484  24.099  1.00 31.96    -0.000 A 
HETATM   33  C30 5ZF A 503      12.106   1.604  25.132  1.00 33.61     0.000 A 
HETATM   34  C31 5ZF A 503      10.791   1.228  25.422  1.00 35.25    -0.000 A 
HETATM   35  C32 5ZF A 503       9.703   1.744  24.690  1.00 32.70    -0.002 A 
ENDBRANCH  28  30
ENDBRANCH  26  28
ENDBRANCH  18  25
ENDBRANCH   5  18
ENDBRANCH   2   3
TORSDOF 8
