MODEL 1
REMARK VINA RESULT:      -7.0      0.000      0.000
REMARK  8 active torsions:
REMARK  status: ('A' for Active; 'I' for Inactive)
REMARK       I    between atoms: C02_2384  and  N03_2385 
REMARK    1  A    between atoms: C02_2384  and  C34_2407 
REMARK    2  A    between atoms: N03_2385  and  C04_2386 
REMARK    3  A    between atoms: N03_2385  and  C16_2395 
REMARK    4  A    between atoms: C07_2389  and  C08_2390 
REMARK    5  A    between atoms: C17_2377  and  C16_2395 
REMARK    6  A    between atoms: C16_2395  and  C23_2398 
REMARK       I    between atoms: C23_2398  and  N24_2399 
REMARK    7  A    between atoms: N24_2399  and  C25_2400 
REMARK    8  A    between atoms: C25_2400  and  C27_2401 
ROOT
HETATM    1 CL35 5ZF A 503       5.129  -3.802  23.087  1.00 51.94    -0.103 Cl
HETATM    2  C34 5ZF A 503       6.648  -3.927  22.202  1.00 37.86     0.183 C 
ENDROOT
BRANCH   2   3
HETATM    3  C02 5ZF A 503       7.573  -4.623  23.177  1.00 36.80     0.255 C 
HETATM    4  O01 5ZF A 503       7.611  -5.874  23.048  1.00 35.01    -0.271 OA
HETATM    5  N03 5ZF A 503       8.245  -4.018  24.230  1.00 33.46    -0.288 N 
BRANCH   5   6
HETATM    6  C04 5ZF A 503       8.213  -2.632  24.258  1.00 37.26     0.063 A 
HETATM    7  C15 5ZF A 503       7.368  -1.821  25.012  1.00 36.91     0.017 A 
HETATM    8  C14 5ZF A 503       7.387  -0.417  24.906  1.00 37.08     0.002 A 
HETATM    9  C07 5ZF A 503       8.231   0.298  24.013  1.00 38.70     0.000 A 
HETATM   10  C06 5ZF A 503       9.037  -0.544  23.228  1.00 40.11     0.002 A 
HETATM   11  C05 5ZF A 503       9.000  -1.917  23.334  1.00 37.21     0.017 A 
BRANCH   9  12
HETATM   12  C08 5ZF A 503       8.275   1.796  23.881  1.00 39.26     0.000 A 
HETATM   13  C13 5ZF A 503       8.503   2.637  25.006  1.00 42.70     0.000 A 
HETATM   14  C12 5ZF A 503       8.559   4.017  24.936  1.00 43.34     0.000 A 
HETATM   15  C11 5ZF A 503       8.386   4.676  23.724  1.00 46.16     0.000 A 
HETATM   16  C10 5ZF A 503       8.168   3.886  22.573  1.00 43.77     0.000 A 
HETATM   17  C09 5ZF A 503       8.108   2.472  22.675  1.00 40.45     0.000 A 
ENDBRANCH   9  12
ENDBRANCH   5   6
BRANCH   5  18
HETATM   18  C16 5ZF A 503       9.006  -4.742  25.189  1.00 36.11     0.193 C 
BRANCH  18  19
HETATM   19  C17 5ZF A 503       8.182  -5.174  26.463  1.00 32.98     0.027 A 
HETATM   20  C18 5ZF A 503       8.793  -5.823  27.538  1.00 34.32     0.097 A 
HETATM   21  N19 5ZF A 503       8.172  -6.257  28.632  1.00 36.33    -0.243 NA
HETATM   22  C20 5ZF A 503       6.806  -6.091  28.711  1.00 37.74     0.099 A 
HETATM   23  C21 5ZF A 503       6.099  -5.467  27.698  1.00 34.65     0.021 A 
HETATM   24  C22 5ZF A 503       6.817  -5.048  26.562  1.00 33.16     0.001 A 
ENDBRANCH  18  19
BRANCH  18  25
HETATM   25  C23 5ZF A 503      10.001  -3.664  25.806  1.00 38.17     0.277 C 
HETATM   26  N24 5ZF A 503      11.302  -3.427  25.324  1.00 35.59    -0.234 NA
HETATM   27  O33 5ZF A 503       9.610  -3.049  26.842  1.00 37.50    -0.268 OA
BRANCH  26  28
HETATM   28  C25 5ZF A 503      12.214  -2.435  25.964  1.00 33.11     0.129 C 
HETATM   29  C26 5ZF A 503      13.600  -3.108  26.002  1.00 36.41     0.031 C 
BRANCH  28  30
HETATM   30  C27 5ZF A 503      12.248  -1.120  25.174  1.00 33.29    -0.000 A 
HETATM   31  C28 5ZF A 503      11.819   0.058  25.776  1.00 36.01    -0.002 A 
HETATM   32  C29 5ZF A 503      11.804   1.316  25.123  1.00 31.96    -0.000 A 
HETATM   33  C30 5ZF A 503      12.215   1.399  23.816  1.00 33.61     0.000 A 
HETATM   34  C31 5ZF A 503      12.630   0.225  23.179  1.00 35.25    -0.000 A 
HETATM   35  C32 5ZF A 503      12.643  -1.011  23.857  1.00 32.70    -0.002 A 
ENDBRANCH  28  30
ENDBRANCH  26  28
ENDBRANCH  18  25
ENDBRANCH   5  18
ENDBRANCH   2   3
TORSDOF 8
ENDMDL
MODEL 2
REMARK VINA RESULT:      -6.8      3.048      6.825
REMARK  8 active torsions:
REMARK  status: ('A' for Active; 'I' for Inactive)
REMARK       I    between atoms: C02_2384  and  N03_2385 
REMARK    1  A    between atoms: C02_2384  and  C34_2407 
REMARK    2  A    between atoms: N03_2385  and  C04_2386 
REMARK    3  A    between atoms: N03_2385  and  C16_2395 
REMARK    4  A    between atoms: C07_2389  and  C08_2390 
REMARK    5  A    between atoms: C17_2377  and  C16_2395 
REMARK    6  A    between atoms: C16_2395  and  C23_2398 
REMARK       I    between atoms: C23_2398  and  N24_2399 
REMARK    7  A    between atoms: N24_2399  and  C25_2400 
REMARK    8  A    between atoms: C25_2400  and  C27_2401 
ROOT
HETATM    1 CL35 5ZF A 503       5.652  -5.347  21.954  1.00 51.94    -0.103 Cl
HETATM    2  C34 5ZF A 503       6.922  -4.159  22.242  1.00 37.86     0.183 C 
ENDROOT
BRANCH   2   3
HETATM    3  C02 5ZF A 503       6.184  -2.838  22.228  1.00 36.80     0.255 C 
HETATM    4  O01 5ZF A 503       5.004  -2.911  21.796  1.00 35.01    -0.271 OA
HETATM    5  N03 5ZF A 503       6.735  -1.599  22.521  1.00 33.46    -0.288 N 
BRANCH   5   6
HETATM    6  C04 5ZF A 503       8.013  -1.611  23.060  1.00 37.26     0.063 A 
HETATM    7  C15 5ZF A 503       9.222  -1.544  22.370  1.00 36.91     0.017 A 
HETATM    8  C14 5ZF A 503      10.463  -1.631  23.028  1.00 37.08     0.002 A 
HETATM    9  C07 5ZF A 503      10.606  -1.824  24.429  1.00 38.70     0.000 A 
HETATM   10  C06 5ZF A 503       9.373  -1.939  25.094  1.00 40.11     0.002 A 
HETATM   11  C05 5ZF A 503       8.165  -1.863  24.437  1.00 37.21     0.017 A 
BRANCH   9  12
HETATM   12  C08 5ZF A 503      11.918  -1.918  25.158  1.00 39.26     0.000 A 
HETATM   13  C13 5ZF A 503      12.279  -3.079  25.899  1.00 42.70     0.000 A 
HETATM   14  C12 5ZF A 503      13.474  -3.216  26.579  1.00 43.34     0.000 A 
HETATM   15  C11 5ZF A 503      14.415  -2.193  26.580  1.00 46.16     0.000 A 
HETATM   16  C10 5ZF A 503      14.112  -1.023  25.849  1.00 43.77     0.000 A 
HETATM   17  C09 5ZF A 503      12.874  -0.905  25.166  1.00 40.45     0.000 A 
ENDBRANCH   9  12
ENDBRANCH   5   6
BRANCH   5  18
HETATM   18  C16 5ZF A 503       6.025  -0.374  22.374  1.00 36.11     0.193 C 
BRANCH  18  19
HETATM   19  C17 5ZF A 503       6.054   0.207  20.908  1.00 32.98     0.027 A 
HETATM   20  C18 5ZF A 503       7.160   0.020  20.074  1.00 34.32     0.097 A 
HETATM   21  N19 5ZF A 503       7.288   0.507  18.842  1.00 36.33    -0.243 NA
HETATM   22  C20 5ZF A 503       6.270   1.291  18.345  1.00 37.74     0.099 A 
HETATM   23  C21 5ZF A 503       5.131   1.546  19.090  1.00 34.65     0.021 A 
HETATM   24  C22 5ZF A 503       5.069   1.015  20.392  1.00 33.16     0.001 A 
ENDBRANCH  18  19
BRANCH  18  25
HETATM   25  C23 5ZF A 503       6.907   0.695  23.157  1.00 38.17     0.277 C 
HETATM   26  N24 5ZF A 503       7.964   1.420  22.576  1.00 35.59    -0.234 NA
HETATM   27  O33 5ZF A 503       6.680   0.829  24.396  1.00 37.50    -0.268 OA
BRANCH  26  28
HETATM   28  C25 5ZF A 503       8.790   2.381  23.363  1.00 33.11     0.129 C 
HETATM   29  C26 5ZF A 503      10.254   2.074  22.989  1.00 36.41     0.031 C 
BRANCH  28  30
HETATM   30  C27 5ZF A 503       8.418   3.833  23.035  1.00 33.29    -0.000 A 
HETATM   31  C28 5ZF A 503       7.388   4.095  22.139  1.00 36.01    -0.002 A 
HETATM   32  C29 5ZF A 503       6.980   5.402  21.768  1.00 31.96    -0.000 A 
HETATM   33  C30 5ZF A 503       7.637   6.485  22.296  1.00 33.61     0.000 A 
HETATM   34  C31 5ZF A 503       8.693   6.249  23.182  1.00 35.25    -0.000 A 
HETATM   35  C32 5ZF A 503       9.069   4.939  23.540  1.00 32.70    -0.002 A 
ENDBRANCH  28  30
ENDBRANCH  26  28
ENDBRANCH  18  25
ENDBRANCH   5  18
ENDBRANCH   2   3
TORSDOF 8
ENDMDL
MODEL 3
REMARK VINA RESULT:      -6.5      2.465      3.115
REMARK  8 active torsions:
REMARK  status: ('A' for Active; 'I' for Inactive)
REMARK       I    between atoms: C02_2384  and  N03_2385 
REMARK    1  A    between atoms: C02_2384  and  C34_2407 
REMARK    2  A    between atoms: N03_2385  and  C04_2386 
REMARK    3  A    between atoms: N03_2385  and  C16_2395 
REMARK    4  A    between atoms: C07_2389  and  C08_2390 
REMARK    5  A    between atoms: C17_2377  and  C16_2395 
REMARK    6  A    between atoms: C16_2395  and  C23_2398 
REMARK       I    between atoms: C23_2398  and  N24_2399 
REMARK    7  A    between atoms: N24_2399  and  C25_2400 
REMARK    8  A    between atoms: C25_2400  and  C27_2401 
ROOT
HETATM    1 CL35 5ZF A 503       6.046  -0.425  19.132  1.00 51.94    -0.103 Cl
HETATM    2  C34 5ZF A 503       5.393  -0.542  20.765  1.00 37.86     0.183 C 
ENDROOT
BRANCH   2   3
HETATM    3  C02 5ZF A 503       5.917  -1.871  21.265  1.00 36.80     0.255 C 
HETATM    4  O01 5ZF A 503       5.388  -2.873  20.716  1.00 35.01    -0.271 OA
HETATM    5  N03 5ZF A 503       6.799  -2.049  22.321  1.00 33.46    -0.288 N 
BRANCH   5   6
HETATM    6  C04 5ZF A 503       7.392  -0.900  22.821  1.00 37.26     0.063 A 
HETATM    7  C15 5ZF A 503       6.841   0.016  23.714  1.00 36.91     0.017 A 
HETATM    8  C14 5ZF A 503       7.522   1.186  24.100  1.00 37.08     0.002 A 
HETATM    9  C07 5ZF A 503       8.801   1.559  23.603  1.00 38.70     0.000 A 
HETATM   10  C06 5ZF A 503       9.312   0.645  22.667  1.00 40.11     0.002 A 
HETATM   11  C05 5ZF A 503       8.631  -0.491  22.289  1.00 37.21     0.017 A 
BRANCH   9  12
HETATM   12  C08 5ZF A 503       9.552   2.801  24.001  1.00 39.26     0.000 A 
HETATM   13  C13 5ZF A 503      10.683   3.255  23.265  1.00 42.70     0.000 A 
HETATM   14  C12 5ZF A 503      11.402   4.391  23.584  1.00 43.34     0.000 A 
HETATM   15  C11 5ZF A 503      11.050   5.172  24.679  1.00 46.16     0.000 A 
HETATM   16  C10 5ZF A 503       9.927   4.772  25.437  1.00 43.77     0.000 A 
HETATM   17  C09 5ZF A 503       9.212   3.597  25.091  1.00 40.45     0.000 A 
ENDBRANCH   9  12
ENDBRANCH   5   6
BRANCH   5  18
HETATM   18  C16 5ZF A 503       7.164  -3.329  22.825  1.00 36.11     0.193 C 
BRANCH  18  19
HETATM   19  C17 5ZF A 503       5.959  -4.135  23.449  1.00 32.98     0.027 A 
HETATM   20  C18 5ZF A 503       5.943  -5.532  23.450  1.00 34.32     0.097 A 
HETATM   21  N19 5ZF A 503       4.955  -6.292  23.917  1.00 36.33    -0.243 NA
HETATM   22  C20 5ZF A 503       3.833  -5.664  24.412  1.00 37.74     0.099 A 
HETATM   23  C21 5ZF A 503       3.741  -4.283  24.452  1.00 34.65     0.021 A 
HETATM   24  C22 5ZF A 503       4.815  -3.541  23.926  1.00 33.16     0.001 A 
ENDBRANCH  18  19
BRANCH  18  25
HETATM   25  C23 5ZF A 503       8.038  -3.014  24.118  1.00 38.17     0.277 C 
HETATM   26  N24 5ZF A 503       9.436  -3.160  24.177  1.00 35.59    -0.234 NA
HETATM   27  O33 5ZF A 503       7.410  -2.691  25.170  1.00 37.50    -0.268 OA
BRANCH  26  28
HETATM   28  C25 5ZF A 503      10.207  -2.894  25.426  1.00 33.11     0.129 C 
HETATM   29  C26 5ZF A 503      11.080  -4.145  25.651  1.00 36.41     0.031 C 
BRANCH  28  30
HETATM   30  C27 5ZF A 503      11.062  -1.627  25.293  1.00 33.29    -0.000 A 
HETATM   31  C28 5ZF A 503      10.746  -0.500  26.043  1.00 36.01    -0.002 A 
HETATM   32  C29 5ZF A 503      11.471   0.717  25.979  1.00 31.96    -0.000 A 
HETATM   33  C30 5ZF A 503      12.538   0.819  25.122  1.00 33.61     0.000 A 
HETATM   34  C31 5ZF A 503      12.862  -0.292  24.338  1.00 35.25    -0.000 A 
HETATM   35  C32 5ZF A 503      12.130  -1.493  24.430  1.00 32.70    -0.002 A 
ENDBRANCH  28  30
ENDBRANCH  26  28
ENDBRANCH  18  25
ENDBRANCH   5  18
ENDBRANCH   2   3
TORSDOF 8
ENDMDL
MODEL 4
REMARK VINA RESULT:      -6.3      3.160      6.824
REMARK  8 active torsions:
REMARK  status: ('A' for Active; 'I' for Inactive)
REMARK       I    between atoms: C02_2384  and  N03_2385 
REMARK    1  A    between atoms: C02_2384  and  C34_2407 
REMARK    2  A    between atoms: N03_2385  and  C04_2386 
REMARK    3  A    between atoms: N03_2385  and  C16_2395 
REMARK    4  A    between atoms: C07_2389  and  C08_2390 
REMARK    5  A    between atoms: C17_2377  and  C16_2395 
REMARK    6  A    between atoms: C16_2395  and  C23_2398 
REMARK       I    between atoms: C23_2398  and  N24_2399 
REMARK    7  A    between atoms: N24_2399  and  C25_2400 
REMARK    8  A    between atoms: C25_2400  and  C27_2401 
ROOT
HETATM    1 CL35 5ZF A 503       7.748   3.622  26.423  1.00 51.94    -0.103 Cl
HETATM    2  C34 5ZF A 503       6.991   2.248  25.621  1.00 37.86     0.183 C 
ENDROOT
BRANCH   2   3
HETATM    3  C02 5ZF A 503       7.708   2.171  24.291  1.00 36.80     0.255 C 
HETATM    4  O01 5ZF A 503       7.834   3.280  23.709  1.00 35.01    -0.271 OA
HETATM    5  N03 5ZF A 503       8.098   1.006  23.647  1.00 33.46    -0.288 N 
BRANCH   5   6
HETATM    6  C04 5ZF A 503       7.993  -0.164  24.384  1.00 37.26     0.063 A 
HETATM    7  C15 5ZF A 503       6.991  -1.129  24.300  1.00 36.91     0.017 A 
HETATM    8  C14 5ZF A 503       6.959  -2.248  25.153  1.00 37.08     0.002 A 
HETATM    9  C07 5ZF A 503       7.908  -2.486  26.184  1.00 38.70     0.000 A 
HETATM   10  C06 5ZF A 503       8.877  -1.474  26.280  1.00 40.11     0.002 A 
HETATM   11  C05 5ZF A 503       8.891  -0.377  25.447  1.00 37.21     0.017 A 
BRANCH   9  12
HETATM   12  C08 5ZF A 503       7.899  -3.675  27.107  1.00 39.26     0.000 A 
HETATM   13  C13 5ZF A 503       9.099  -4.180  27.682  1.00 42.70     0.000 A 
HETATM   14  C12 5ZF A 503       9.144  -5.264  28.539  1.00 43.34     0.000 A 
HETATM   15  C11 5ZF A 503       7.983  -5.941  28.893  1.00 46.16     0.000 A 
HETATM   16  C10 5ZF A 503       6.762  -5.472  28.358  1.00 43.77     0.000 A 
HETATM   17  C09 5ZF A 503       6.746  -4.362  27.474  1.00 40.45     0.000 A 
ENDBRANCH   9  12
ENDBRANCH   5   6
BRANCH   5  18
HETATM   18  C16 5ZF A 503       8.661   0.988  22.340  1.00 36.11     0.193 C 
BRANCH  18  19
HETATM   19  C17 5ZF A 503       7.639   0.572  21.211  1.00 32.98     0.027 A 
HETATM   20  C18 5ZF A 503       8.062   0.333  19.901  1.00 34.32     0.097 A 
HETATM   21  N19 5ZF A 503       7.269   0.018  18.880  1.00 36.33    -0.243 NA
HETATM   22  C20 5ZF A 503       5.912  -0.049  19.109  1.00 37.74     0.099 A 
HETATM   23  C21 5ZF A 503       5.385   0.177  20.369  1.00 34.65     0.021 A 
HETATM   24  C22 5ZF A 503       6.279   0.523  21.400  1.00 33.16     0.001 A 
ENDBRANCH  18  19
BRANCH  18  25
HETATM   25  C23 5ZF A 503       9.649  -0.260  22.348  1.00 38.17     0.277 C 
HETATM   26  N24 5ZF A 503      11.010  -0.184  22.701  1.00 35.59    -0.234 NA
HETATM   27  O33 5ZF A 503       9.185  -1.363  21.932  1.00 37.50    -0.268 OA
BRANCH  26  28
HETATM   28  C25 5ZF A 503      11.907  -1.375  22.650  1.00 33.11     0.129 C 
HETATM   29  C26 5ZF A 503      13.097  -0.961  21.763  1.00 36.41     0.031 C 
BRANCH  28  30
HETATM   30  C27 5ZF A 503      12.368  -1.783  24.056  1.00 33.29    -0.000 A 
HETATM   31  C28 5ZF A 503      13.508  -1.204  24.603  1.00 36.01    -0.002 A 
HETATM   32  C29 5ZF A 503      14.015  -1.525  25.887  1.00 31.96    -0.000 A 
HETATM   33  C30 5ZF A 503      13.372  -2.472  26.646  1.00 33.61     0.000 A 
HETATM   34  C31 5ZF A 503      12.237  -3.087  26.109  1.00 35.25    -0.000 A 
HETATM   35  C32 5ZF A 503      11.750  -2.741  24.833  1.00 32.70    -0.002 A 
ENDBRANCH  28  30
ENDBRANCH  26  28
ENDBRANCH  18  25
ENDBRANCH   5  18
ENDBRANCH   2   3
TORSDOF 8
ENDMDL
MODEL 5
REMARK VINA RESULT:      -6.3      2.702      4.261
REMARK  8 active torsions:
REMARK  status: ('A' for Active; 'I' for Inactive)
REMARK       I    between atoms: C02_2384  and  N03_2385 
REMARK    1  A    between atoms: C02_2384  and  C34_2407 
REMARK    2  A    between atoms: N03_2385  and  C04_2386 
REMARK    3  A    between atoms: N03_2385  and  C16_2395 
REMARK    4  A    between atoms: C07_2389  and  C08_2390 
REMARK    5  A    between atoms: C17_2377  and  C16_2395 
REMARK    6  A    between atoms: C16_2395  and  C23_2398 
REMARK       I    between atoms: C23_2398  and  N24_2399 
REMARK    7  A    between atoms: N24_2399  and  C25_2400 
REMARK    8  A    between atoms: C25_2400  and  C27_2401 
ROOT
HETATM    1 CL35 5ZF A 503       6.253   1.358  19.609  1.00 51.94    -0.103 Cl
HETATM    2  C34 5ZF A 503       5.982   1.250  21.347  1.00 37.86     0.183 C 
ENDROOT
BRANCH   2   3
HETATM    3  C02 5ZF A 503       6.648  -0.052  21.732  1.00 36.80     0.255 C 
HETATM    4  O01 5ZF A 503       6.062  -1.079  21.299  1.00 35.01    -0.271 OA
HETATM    5  N03 5ZF A 503       7.729  -0.187  22.592  1.00 33.46    -0.288 N 
BRANCH   5   6
HETATM    6  C04 5ZF A 503       8.363   0.988  22.965  1.00 37.26     0.063 A 
HETATM    7  C15 5ZF A 503       8.140   1.741  24.116  1.00 36.91     0.017 A 
HETATM    8  C14 5ZF A 503       8.804   2.959  24.353  1.00 37.08     0.002 A 
HETATM    9  C07 5ZF A 503       9.727   3.548  23.446  1.00 38.70     0.000 A 
HETATM   10  C06 5ZF A 503       9.896   2.796  22.272  1.00 40.11     0.002 A 
HETATM   11  C05 5ZF A 503       9.231   1.610  22.047  1.00 37.21     0.017 A 
BRANCH   9  12
HETATM   12  C08 5ZF A 503      10.453   4.846  23.675  1.00 39.26     0.000 A 
HETATM   13  C13 5ZF A 503       9.855   6.099  23.364  1.00 42.70     0.000 A 
HETATM   14  C12 5ZF A 503      10.477   7.318  23.561  1.00 43.34     0.000 A 
HETATM   15  C11 5ZF A 503      11.762   7.385  24.087  1.00 46.16     0.000 A 
HETATM   16  C10 5ZF A 503      12.397   6.169  24.425  1.00 43.77     0.000 A 
HETATM   17  C09 5ZF A 503      11.738   4.931  24.204  1.00 40.45     0.000 A 
ENDBRANCH   9  12
ENDBRANCH   5   6
BRANCH   5  18
HETATM   18  C16 5ZF A 503       8.239  -1.447  23.014  1.00 36.11     0.193 C 
BRANCH  18  19
HETATM   19  C17 5ZF A 503       7.900  -1.803  24.513  1.00 32.98     0.027 A 
HETATM   20  C18 5ZF A 503       6.805  -1.230  25.165  1.00 34.32     0.097 A 
HETATM   21  N19 5ZF A 503       6.467  -1.440  26.436  1.00 36.33    -0.243 NA
HETATM   22  C20 5ZF A 503       7.274  -2.260  27.194  1.00 37.74     0.099 A 
HETATM   23  C21 5ZF A 503       8.389  -2.874  26.649  1.00 34.65     0.021 A 
HETATM   24  C22 5ZF A 503       8.697  -2.594  25.304  1.00 33.16     0.001 A 
ENDBRANCH  18  19
BRANCH  18  25
HETATM   25  C23 5ZF A 503       9.815  -1.237  23.087  1.00 38.17     0.277 C 
HETATM   26  N24 5ZF A 503      10.475  -0.598  24.153  1.00 35.59    -0.234 NA
HETATM   27  O33 5ZF A 503      10.490  -1.601  22.079  1.00 37.50    -0.268 OA
BRANCH  26  28
HETATM   28  C25 5ZF A 503      11.951  -0.385  24.155  1.00 33.11     0.129 C 
HETATM   29  C26 5ZF A 503      12.159   1.089  24.553  1.00 36.41     0.031 C 
BRANCH  28  30
HETATM   30  C27 5ZF A 503      12.649  -1.337  25.137  1.00 33.29    -0.000 A 
HETATM   31  C28 5ZF A 503      13.922  -1.032  25.606  1.00 36.01    -0.002 A 
HETATM   32  C29 5ZF A 503      14.648  -1.854  26.504  1.00 31.96    -0.000 A 
HETATM   33  C30 5ZF A 503      14.090  -3.032  26.936  1.00 33.61     0.000 A 
HETATM   34  C31 5ZF A 503      12.821  -3.374  26.461  1.00 35.25    -0.000 A 
HETATM   35  C32 5ZF A 503      12.119  -2.532  25.575  1.00 32.70    -0.002 A 
ENDBRANCH  28  30
ENDBRANCH  26  28
ENDBRANCH  18  25
ENDBRANCH   5  18
ENDBRANCH   2   3
TORSDOF 8
ENDMDL
MODEL 6
REMARK VINA RESULT:      -6.3      2.664      5.595
REMARK  8 active torsions:
REMARK  status: ('A' for Active; 'I' for Inactive)
REMARK       I    between atoms: C02_2384  and  N03_2385 
REMARK    1  A    between atoms: C02_2384  and  C34_2407 
REMARK    2  A    between atoms: N03_2385  and  C04_2386 
REMARK    3  A    between atoms: N03_2385  and  C16_2395 
REMARK    4  A    between atoms: C07_2389  and  C08_2390 
REMARK    5  A    between atoms: C17_2377  and  C16_2395 
REMARK    6  A    between atoms: C16_2395  and  C23_2398 
REMARK       I    between atoms: C23_2398  and  N24_2399 
REMARK    7  A    between atoms: N24_2399  and  C25_2400 
REMARK    8  A    between atoms: C25_2400  and  C27_2401 
ROOT
HETATM    1 CL35 5ZF A 503       5.812   0.338  26.371  1.00 51.94    -0.103 Cl
HETATM    2  C34 5ZF A 503       7.215  -0.020  27.377  1.00 37.86     0.183 C 
ENDROOT
BRANCH   2   3
HETATM    3  C02 5ZF A 503       7.838  -1.223  26.704  1.00 36.80     0.255 C 
HETATM    4  O01 5ZF A 503       7.363  -2.327  27.078  1.00 35.01    -0.271 OA
HETATM    5  N03 5ZF A 503       8.928  -1.197  25.846  1.00 33.46    -0.288 N 
BRANCH   5   6
HETATM    6  C04 5ZF A 503       9.344   0.056  25.425  1.00 37.26     0.063 A 
HETATM    7  C15 5ZF A 503       8.892   0.770  24.318  1.00 36.91     0.017 A 
HETATM    8  C14 5ZF A 503       9.441   2.014  23.954  1.00 37.08     0.002 A 
HETATM    9  C07 5ZF A 503      10.512   2.640  24.648  1.00 38.70     0.000 A 
HETATM   10  C06 5ZF A 503      10.983   1.878  25.730  1.00 40.11     0.002 A 
HETATM   11  C05 5ZF A 503      10.444   0.656  26.068  1.00 37.21     0.017 A 
BRANCH   9  12
HETATM   12  C08 5ZF A 503      11.116   3.970  24.285  1.00 39.26     0.000 A 
HETATM   13  C13 5ZF A 503      12.512   4.214  24.412  1.00 42.70     0.000 A 
HETATM   14  C12 5ZF A 503      13.115   5.414  24.086  1.00 43.34     0.000 A 
HETATM   15  C11 5ZF A 503      12.366   6.481  23.605  1.00 46.16     0.000 A 
HETATM   16  C10 5ZF A 503      10.975   6.287  23.448  1.00 43.77     0.000 A 
HETATM   17  C09 5ZF A 503      10.381   5.047  23.798  1.00 40.45     0.000 A 
ENDBRANCH   9  12
ENDBRANCH   5   6
BRANCH   5  18
HETATM   18  C16 5ZF A 503       9.549  -2.373  25.337  1.00 36.11     0.193 C 
BRANCH  18  19
HETATM   19  C17 5ZF A 503      10.947  -2.111  24.654  1.00 32.98     0.027 A 
HETATM   20  C18 5ZF A 503      12.140  -2.248  25.367  1.00 34.32     0.097 A 
HETATM   21  N19 5ZF A 503      13.358  -2.011  24.885  1.00 36.33    -0.243 NA
HETATM   22  C20 5ZF A 503      13.466  -1.558  23.588  1.00 37.74     0.099 A 
HETATM   23  C21 5ZF A 503      12.345  -1.380  22.795  1.00 34.65     0.021 A 
HETATM   24  C22 5ZF A 503      11.088  -1.633  23.373  1.00 33.16     0.001 A 
ENDBRANCH  18  19
BRANCH  18  25
HETATM   25  C23 5ZF A 503       8.656  -2.785  24.085  1.00 38.17     0.277 C 
HETATM   26  N24 5ZF A 503       7.708  -1.939  23.481  1.00 35.59    -0.234 NA
HETATM   27  O33 5ZF A 503       8.764  -3.978  23.672  1.00 37.50    -0.268 OA
BRANCH  26  28
HETATM   28  C25 5ZF A 503       6.864  -2.386  22.336  1.00 33.11     0.129 C 
HETATM   29  C26 5ZF A 503       5.546  -2.885  22.960  1.00 36.41     0.031 C 
BRANCH  28  30
HETATM   30  C27 5ZF A 503       6.619  -1.241  21.344  1.00 33.29    -0.000 A 
HETATM   31  C28 5ZF A 503       7.562  -0.226  21.217  1.00 36.01    -0.002 A 
HETATM   32  C29 5ZF A 503       7.419   0.875  20.336  1.00 31.96    -0.000 A 
HETATM   33  C30 5ZF A 503       6.285   0.978  19.569  1.00 33.61     0.000 A 
HETATM   34  C31 5ZF A 503       5.310  -0.016  19.695  1.00 35.25    -0.000 A 
HETATM   35  C32 5ZF A 503       5.485  -1.106  20.572  1.00 32.70    -0.002 A 
ENDBRANCH  28  30
ENDBRANCH  26  28
ENDBRANCH  18  25
ENDBRANCH   5  18
ENDBRANCH   2   3
TORSDOF 8
ENDMDL
MODEL 7
REMARK VINA RESULT:      -6.3      2.965      7.062
REMARK  8 active torsions:
REMARK  status: ('A' for Active; 'I' for Inactive)
REMARK       I    between atoms: C02_2384  and  N03_2385 
REMARK    1  A    between atoms: C02_2384  and  C34_2407 
REMARK    2  A    between atoms: N03_2385  and  C04_2386 
REMARK    3  A    between atoms: N03_2385  and  C16_2395 
REMARK    4  A    between atoms: C07_2389  and  C08_2390 
REMARK    5  A    between atoms: C17_2377  and  C16_2395 
REMARK    6  A    between atoms: C16_2395  and  C23_2398 
REMARK       I    between atoms: C23_2398  and  N24_2399 
REMARK    7  A    between atoms: N24_2399  and  C25_2400 
REMARK    8  A    between atoms: C25_2400  and  C27_2401 
ROOT
HETATM    1 CL35 5ZF A 503       6.650   1.245  22.992  1.00 51.94    -0.103 Cl
HETATM    2  C34 5ZF A 503       7.734   0.284  21.988  1.00 37.86     0.183 C 
ENDROOT
BRANCH   2   3
HETATM    3  C02 5ZF A 503       9.099   0.871  22.272  1.00 36.80     0.255 C 
HETATM    4  O01 5ZF A 503       9.367   1.900  21.598  1.00 35.01    -0.271 OA
HETATM    5  N03 5ZF A 503      10.071   0.307  23.086  1.00 33.46    -0.288 N 
BRANCH   5   6
HETATM    6  C04 5ZF A 503       9.672  -0.780  23.849  1.00 37.26     0.063 A 
HETATM    7  C15 5ZF A 503       9.730  -2.127  23.497  1.00 36.91     0.017 A 
HETATM    8  C14 5ZF A 503       9.231  -3.141  24.336  1.00 37.08     0.002 A 
HETATM    9  C07 5ZF A 503       8.604  -2.896  25.588  1.00 38.70     0.000 A 
HETATM   10  C06 5ZF A 503       8.514  -1.528  25.897  1.00 40.11     0.002 A 
HETATM   11  C05 5ZF A 503       8.995  -0.545  25.061  1.00 37.21     0.017 A 
BRANCH   9  12
HETATM   12  C08 5ZF A 503       8.066  -3.959  26.506  1.00 39.26     0.000 A 
HETATM   13  C13 5ZF A 503       6.924  -4.735  26.160  1.00 42.70     0.000 A 
HETATM   14  C12 5ZF A 503       6.396  -5.727  26.965  1.00 43.34     0.000 A 
HETATM   15  C11 5ZF A 503       6.967  -6.025  28.196  1.00 46.16     0.000 A 
HETATM   16  C10 5ZF A 503       8.111  -5.292  28.583  1.00 43.77     0.000 A 
HETATM   17  C09 5ZF A 503       8.628  -4.274  27.740  1.00 40.45     0.000 A 
ENDBRANCH   9  12
ENDBRANCH   5   6
BRANCH   5  18
HETATM   18  C16 5ZF A 503      11.382   0.842  23.220  1.00 36.11     0.193 C 
BRANCH  18  19
HETATM   19  C17 5ZF A 503      12.318   0.005  24.176  1.00 32.98     0.027 A 
HETATM   20  C18 5ZF A 503      12.562   0.410  25.491  1.00 34.32     0.097 A 
HETATM   21  N19 5ZF A 503      13.365  -0.210  26.353  1.00 36.33    -0.243 NA
HETATM   22  C20 5ZF A 503      14.046  -1.325  25.917  1.00 37.74     0.099 A 
HETATM   23  C21 5ZF A 503      13.883  -1.809  24.630  1.00 34.65     0.021 A 
HETATM   24  C22 5ZF A 503      13.032  -1.095  23.766  1.00 33.16     0.001 A 
ENDBRANCH  18  19
BRANCH  18  25
HETATM   25  C23 5ZF A 503      11.184   2.179  24.063  1.00 38.17     0.277 C 
HETATM   26  N24 5ZF A 503      11.686   3.435  23.675  1.00 35.59    -0.234 NA
HETATM   27  O33 5ZF A 503      10.605   2.069  25.184  1.00 37.50    -0.268 OA
BRANCH  26  28
HETATM   28  C25 5ZF A 503      11.511   4.651  24.521  1.00 33.11     0.129 C 
HETATM   29  C26 5ZF A 503      12.869   5.379  24.489  1.00 36.41     0.031 C 
BRANCH  28  30
HETATM   30  C27 5ZF A 503      10.382   5.542  23.987  1.00 33.29    -0.000 A 
HETATM   31  C28 5ZF A 503       9.186   4.965  23.572  1.00 36.01    -0.002 A 
HETATM   32  C29 5ZF A 503       8.092   5.705  23.056  1.00 31.96    -0.000 A 
HETATM   33  C30 5ZF A 503       8.203   7.068  22.932  1.00 33.61     0.000 A 
HETATM   34  C31 5ZF A 503       9.403   7.671  23.320  1.00 35.25    -0.000 A 
HETATM   35  C32 5ZF A 503      10.470   6.910  23.839  1.00 32.70    -0.002 A 
ENDBRANCH  28  30
ENDBRANCH  26  28
ENDBRANCH  18  25
ENDBRANCH   5  18
ENDBRANCH   2   3
TORSDOF 8
ENDMDL
MODEL 8
REMARK VINA RESULT:      -6.3      2.751      6.065
REMARK  8 active torsions:
REMARK  status: ('A' for Active; 'I' for Inactive)
REMARK       I    between atoms: C02_2384  and  N03_2385 
REMARK    1  A    between atoms: C02_2384  and  C34_2407 
REMARK    2  A    between atoms: N03_2385  and  C04_2386 
REMARK    3  A    between atoms: N03_2385  and  C16_2395 
REMARK    4  A    between atoms: C07_2389  and  C08_2390 
REMARK    5  A    between atoms: C17_2377  and  C16_2395 
REMARK    6  A    between atoms: C16_2395  and  C23_2398 
REMARK       I    between atoms: C23_2398  and  N24_2399 
REMARK    7  A    between atoms: N24_2399  and  C25_2400 
REMARK    8  A    between atoms: C25_2400  and  C27_2401 
ROOT
HETATM    1 CL35 5ZF A 503       4.461  -1.225  26.528  1.00 51.94    -0.103 Cl
HETATM    2  C34 5ZF A 503       5.690   0.030  26.680  1.00 37.86     0.183 C 
ENDROOT
BRANCH   2   3
HETATM    3  C02 5ZF A 503       6.984  -0.746  26.774  1.00 36.80     0.255 C 
HETATM    4  O01 5ZF A 503       7.218  -1.223  27.915  1.00 35.01    -0.271 OA
HETATM    5  N03 5ZF A 503       7.941  -0.852  25.774  1.00 33.46    -0.288 N 
BRANCH   5   6
HETATM    6  C04 5ZF A 503       7.577  -0.366  24.528  1.00 37.26     0.063 A 
HETATM    7  C15 5ZF A 503       7.713   0.938  24.056  1.00 36.91     0.017 A 
HETATM    8  C14 5ZF A 503       7.243   1.327  22.788  1.00 37.08     0.002 A 
HETATM    9  C07 5ZF A 503       6.570   0.454  21.890  1.00 38.70     0.000 A 
HETATM   10  C06 5ZF A 503       6.401  -0.841  22.409  1.00 40.11     0.002 A 
HETATM   11  C05 5ZF A 503       6.855  -1.205  23.658  1.00 37.21     0.017 A 
BRANCH   9  12
HETATM   12  C08 5ZF A 503       6.061   0.841  20.528  1.00 39.26     0.000 A 
HETATM   13  C13 5ZF A 503       4.986   1.760  20.367  1.00 42.70     0.000 A 
HETATM   14  C12 5ZF A 503       4.487   2.152  19.140  1.00 43.34     0.000 A 
HETATM   15  C11 5ZF A 503       5.023   1.651  17.960  1.00 46.16     0.000 A 
HETATM   16  C10 5ZF A 503       6.100   0.742  18.063  1.00 43.77     0.000 A 
HETATM   17  C09 5ZF A 503       6.588   0.351  19.337  1.00 40.45     0.000 A 
ENDBRANCH   9  12
ENDBRANCH   5   6
BRANCH   5  18
HETATM   18  C16 5ZF A 503       9.196  -1.495  25.960  1.00 36.11     0.193 C 
BRANCH  18  19
HETATM   19  C17 5ZF A 503      10.275  -1.116  24.872  1.00 32.98     0.027 A 
HETATM   20  C18 5ZF A 503      11.189  -0.082  25.086  1.00 34.32     0.097 A 
HETATM   21  N19 5ZF A 503      12.104   0.332  24.212  1.00 36.33    -0.243 NA
HETATM   22  C20 5ZF A 503      12.143  -0.278  22.976  1.00 37.74     0.099 A 
HETATM   23  C21 5ZF A 503      11.277  -1.310  22.657  1.00 34.65     0.021 A 
HETATM   24  C22 5ZF A 503      10.323  -1.685  23.622  1.00 33.16     0.001 A 
ENDBRANCH  18  19
BRANCH  18  25
HETATM   25  C23 5ZF A 503       8.917  -3.023  25.611  1.00 38.17     0.277 C 
HETATM   26  N24 5ZF A 503       7.672  -3.655  25.783  1.00 35.59    -0.234 NA
HETATM   27  O33 5ZF A 503       9.908  -3.715  25.233  1.00 37.50    -0.268 OA
BRANCH  26  28
HETATM   28  C25 5ZF A 503       7.471  -5.102  25.483  1.00 33.11     0.129 C 
HETATM   29  C26 5ZF A 503       6.508  -5.623  26.567  1.00 36.41     0.031 C 
BRANCH  28  30
HETATM   30  C27 5ZF A 503       6.895  -5.303  24.075  1.00 33.29    -0.000 A 
HETATM   31  C28 5ZF A 503       5.524  -5.192  23.868  1.00 36.01    -0.002 A 
HETATM   32  C29 5ZF A 503       4.901  -5.371  22.607  1.00 31.96    -0.000 A 
HETATM   33  C30 5ZF A 503       5.672  -5.690  21.517  1.00 33.61     0.000 A 
HETATM   34  C31 5ZF A 503       7.050  -5.831  21.702  1.00 35.25    -0.000 A 
HETATM   35  C32 5ZF A 503       7.643  -5.638  22.966  1.00 32.70    -0.002 A 
ENDBRANCH  28  30
ENDBRANCH  26  28
ENDBRANCH  18  25
ENDBRANCH   5  18
ENDBRANCH   2   3
TORSDOF 8
ENDMDL
MODEL 9
REMARK VINA RESULT:      -6.2      2.696      7.545
REMARK  8 active torsions:
REMARK  status: ('A' for Active; 'I' for Inactive)
REMARK       I    between atoms: C02_2384  and  N03_2385 
REMARK    1  A    between atoms: C02_2384  and  C34_2407 
REMARK    2  A    between atoms: N03_2385  and  C04_2386 
REMARK    3  A    between atoms: N03_2385  and  C16_2395 
REMARK    4  A    between atoms: C07_2389  and  C08_2390 
REMARK    5  A    between atoms: C17_2377  and  C16_2395 
REMARK    6  A    between atoms: C16_2395  and  C23_2398 
REMARK       I    between atoms: C23_2398  and  N24_2399 
REMARK    7  A    between atoms: N24_2399  and  C25_2400 
REMARK    8  A    between atoms: C25_2400  and  C27_2401 
ROOT
HETATM    1 CL35 5ZF A 503      12.702  -0.741  25.800  1.00 51.94    -0.103 Cl
HETATM    2  C34 5ZF A 503      12.540  -2.268  24.934  1.00 37.86     0.183 C 
ENDROOT
BRANCH   2   3
HETATM    3  C02 5ZF A 503      11.735  -1.900  23.708  1.00 36.80     0.255 C 
HETATM    4  O01 5ZF A 503      12.431  -1.542  22.722  1.00 35.01    -0.271 OA
HETATM    5  N03 5ZF A 503      10.351  -1.811  23.643  1.00 33.46    -0.288 N 
BRANCH   5   6
HETATM    6  C04 5ZF A 503       9.657  -2.293  24.742  1.00 37.26     0.063 A 
HETATM    7  C15 5ZF A 503       8.891  -1.560  25.646  1.00 36.91     0.017 A 
HETATM    8  C14 5ZF A 503       8.283  -2.157  26.767  1.00 37.08     0.002 A 
HETATM    9  C07 5ZF A 503       8.412  -3.533  27.100  1.00 38.70     0.000 A 
HETATM   10  C06 5ZF A 503       9.230  -4.239  26.201  1.00 40.11     0.002 A 
HETATM   11  C05 5ZF A 503       9.829  -3.640  25.114  1.00 37.21     0.017 A 
BRANCH   9  12
HETATM   12  C08 5ZF A 503       7.771  -4.197  28.288  1.00 39.26     0.000 A 
HETATM   13  C13 5ZF A 503       7.991  -5.572  28.581  1.00 42.70     0.000 A 
HETATM   14  C12 5ZF A 503       7.432  -6.226  29.663  1.00 43.34     0.000 A 
HETATM   15  C11 5ZF A 503       6.595  -5.555  30.546  1.00 46.16     0.000 A 
HETATM   16  C10 5ZF A 503       6.353  -4.184  30.307  1.00 43.77     0.000 A 
HETATM   17  C09 5ZF A 503       6.934  -3.539  29.185  1.00 40.45     0.000 A 
ENDBRANCH   9  12
ENDBRANCH   5   6
BRANCH   5  18
HETATM   18  C16 5ZF A 503       9.653  -1.343  22.496  1.00 36.11     0.193 C 
BRANCH  18  19
HETATM   19  C17 5ZF A 503       9.141   0.145  22.624  1.00 32.98     0.027 A 
HETATM   20  C18 5ZF A 503       8.749   0.877  21.501  1.00 34.32     0.097 A 
HETATM   21  N19 5ZF A 503       8.344   2.145  21.509  1.00 36.33    -0.243 NA
HETATM   22  C20 5ZF A 503       8.337   2.815  22.713  1.00 37.74     0.099 A 
HETATM   23  C21 5ZF A 503       8.714   2.186  23.887  1.00 34.65     0.021 A 
HETATM   24  C22 5ZF A 503       9.148   0.850  23.803  1.00 33.16     0.001 A 
ENDBRANCH  18  19
BRANCH  18  25
HETATM   25  C23 5ZF A 503       8.281  -2.151  22.505  1.00 38.17     0.277 C 
HETATM   26  N24 5ZF A 503       8.194  -3.552  22.613  1.00 35.59    -0.234 NA
HETATM   27  O33 5ZF A 503       7.220  -1.483  22.324  1.00 37.50    -0.268 OA
BRANCH  26  28
HETATM   28  C25 5ZF A 503       6.886  -4.268  22.573  1.00 33.11     0.129 C 
HETATM   29  C26 5ZF A 503       7.211  -5.703  22.114  1.00 36.41     0.031 C 
BRANCH  28  30
HETATM   30  C27 5ZF A 503       6.204  -4.257  23.947  1.00 33.29    -0.000 A 
HETATM   31  C28 5ZF A 503       6.122  -5.433  24.686  1.00 36.01    -0.002 A 
HETATM   32  C29 5ZF A 503       5.503  -5.521  25.958  1.00 31.96    -0.000 A 
HETATM   33  C30 5ZF A 503       4.929  -4.401  26.505  1.00 33.61     0.000 A 
HETATM   34  C31 5ZF A 503       4.976  -3.211  25.773  1.00 35.25    -0.000 A 
HETATM   35  C32 5ZF A 503       5.607  -3.150  24.514  1.00 32.70    -0.002 A 
ENDBRANCH  28  30
ENDBRANCH  26  28
ENDBRANCH  18  25
ENDBRANCH   5  18
ENDBRANCH   2   3
TORSDOF 8
ENDMDL
